Circuit: * C:\Users\Smon\source\MTAP-MIDI-Guitar-Converter\simulations\Draft1.asc

Direct Newton iteration failed to find .op point.  (Use ".option noopiter" to skip.)
Starting Gmin stepping
Gmin = 10
Gmin = 1.07374
Gmin = 0.115292
Gmin = 0.0123794
Gmin = 0.00132923
Gmin = 0.000142725
Gmin = 1.5325e-005
Gmin = 1.6455e-006
Gmin = 1.76685e-007
Gmin = 1.89714e-008
Gmin = 2.03704e-009
Gmin = 2.18725e-010
Gmin = 2.34854e-011
Gmin = 2.52173e-012
Gmin = 2.70769e-013
Gmin = 0
Gmin stepping succeeded in finding the operating point.


Date: Sat Nov 12 01:53:09 2022
Total elapsed time: 0.093 seconds.

tnom = 27
temp = 27
method = modified trap
totiter = 7562
traniter = 7032
tranpoints = 1913
accept = 1687
rejected = 226
matrix size = 99
fillins = 99
solver = Normal
Thread vector: 3.9/2.8[2] 1.6/1.2[2] 1.3/2.5[1] 0.2/0.4[1]  2592/500
Matrix Compiler1: 9.75 KB object code size  1.7/0.5/[0.5]
Matrix Compiler2: 9.97 KB object code size  0.7/0.7/[0.5]

