Circuit: * C:\Users\simon\source\MTAP-MIDI-Guitar-Converter\simulations\Draft1.asc

.OP point found by inspection.

Date: Fri Nov 24 15:26:13 2023
Total elapsed time: 0.049 seconds.

tnom = 27
temp = 27
method = modified trap
totiter = 226
traniter = 226
tranpoints = 114
accept = 88
rejected = 26
matrix size = 3
fillins = 0
solver = Normal
Matrix Compiler1: 50 bytes object code size  0.1/0.1/[0.1]
Matrix Compiler2: 175 bytes object code size  0.1/0.1/[0.1]

