Circuit: * C:\Users\Smon\source\MTAP-MIDI-Guitar-Converter\simulations\Draft2.asc

Direct Newton iteration for .op point succeeded.

Date: Sat Nov 12 15:30:25 2022
Total elapsed time: 0.243 seconds.

tnom = 27
temp = 27
method = modified trap
totiter = 27650
traniter = 27616
tranpoints = 6119
accept = 4584
rejected = 1535
matrix size = 53
fillins = 40
solver = Normal
Matrix Compiler1: 4.47 KB object code size  0.8/0.3/[0.2]
Matrix Compiler2: off  [0.3]/0.3/0.3

