Circuit: * C:\Users\Smon\source\MTAP-MIDI-Guitar-Converter\simulations\SallenKey-Redesign.asc

Direct Newton iteration for .op point succeeded.

Date: Sat Nov 19 20:34:18 2022
Total elapsed time: 0.025 seconds.

tnom = 27
temp = 27
method = trap
totiter = 33
traniter = 0
tranpoints = 0
accept = 0
rejected = 0
matrix size = 54
fillins = 50
solver = Normal
Matrix Compiler1:     294 opcodes
Matrix Compiler2:     415 opcodes
